Version 4
SHEET 1 880 772
WIRE 64 96 64 80
WIRE 64 224 64 176
WIRE 16 304 -16 304
WIRE 64 400 64 320
WIRE -160 480 -192 480
WIRE 16 480 -80 480
WIRE 64 512 64 496
WIRE 208 512 64 512
WIRE 336 512 208 512
WIRE 64 528 64 512
WIRE 208 528 208 512
WIRE -160 608 -192 608
WIRE -16 608 -16 304
WIRE -16 608 -80 608
WIRE 16 608 -16 608
WIRE 64 656 64 624
WIRE 208 656 208 624
WIRE 208 656 64 656
WIRE 64 752 64 656
FLAG 64 80 0
FLAG 64 752 0
FLAG -192 480 0
FLAG -192 608 0
FLAG 336 512 Output
SYMBOL voltage 64 192 R180
WINDOW 0 24 96 Left 2
WINDOW 3 24 16 Left 2
WINDOW 123 0 0 Left 0
WINDOW 39 0 0 Left 0
SYMATTR InstName VDD
SYMATTR Value 5
SYMBOL pmos 16 224 R0
SYMATTR InstName M1
SYMBOL pmos 16 400 R0
SYMATTR InstName M3
SYMBOL voltage -64 608 R90
WINDOW 0 -32 56 VBottom 2
WINDOW 3 32 56 VTop 2
WINDOW 123 0 0 Left 0
WINDOW 39 0 0 Left 0
SYMATTR InstName InputB
SYMATTR Value 5
SYMBOL voltage -64 480 R90
WINDOW 0 -32 56 VBottom 2
WINDOW 3 32 56 VTop 2
WINDOW 123 0 0 Left 0
WINDOW 39 0 0 Left 0
SYMATTR InstName InputA
SYMATTR Value 5
SYMBOL nmos 16 528 R0
SYMATTR InstName M2
SYMBOL nmos 160 528 R0
SYMATTR InstName M4
